LTspice 24.0.12 for Windows
Circuit: * C:\Users\emanu\Documents\PROGETTI\PSP-PlantSignalProcessing\Hardware\biopotential\simulation\amp_stage_3.asc
Start Time: Tue Mar 11 20:01:25 2025
solver = Normal
Maximum thread count: 12
tnom = 27
temp = 27
method = modified trap
Early termination of direct N-R iteration.
Direct Newton iteration failed to find .op point.  (Use ".option noopiter" to skip.)
Starting Gmin stepping
Gmin = 10
vernier = 0.5
vernier = 0.25
vernier = 0.125
Gmin = 5.5165
vernier = 0.0625
vernier = 0.03125
vernier = 0.015625
vernier = 0.0078125
Gmin = 5.49501
vernier = 0.00390625
vernier = 0.00195312
vernier = 0.000976562
vernier = 0.000488281
Gmin = 5.50104
Gmin = 0
Gmin stepping failed

Starting source stepping with srcstepmethod=0
Source Step = 3.0303%
vernier = 0.25
Source Step = 3.79084%
Source Step = 3.82043%
Source Step = 3.85002%
Source Step = 3.87962%
Source Step = 3.90921%
Source Step = 3.9388%
vernier = 0.00146484
Source Step = 3.98023%
Source Step = 4.02462%
Source Step = 4.06901%
Source Step = 4.1134%
Source Step = 4.15779%
vernier = 0.00219727
Source Step = 4.21771%
Source Step = 4.2843%
Source Step = 4.35088%
Source Step = 4.41747%
Source Step = 4.48405%
vernier = 0.0032959
Source Step = 4.57061%
Source Step = 4.67048%
Source Step = 4.77036%
Source Step = 4.87024%
Source Step = 4.97011%
vernier = 0.00494385
Source Step = 5.09496%
Source Step = 5.24477%
Source Step = 5.39458%
Source Step = 5.5444%
Source Step = 5.69421%
vernier = 0.00741577
Source Step = 5.87399%
Source Step = 6.09871%
Source Step = 6.32343%
Source Step = 6.54815%
Source Step = 6.77287%
vernier = 0.0111237
Source Step = 7.0313%
Source Step = 7.36838%
Source Step = 7.70546%
Source Step = 8.04254%
Source Step = 8.37962%
vernier = 0.0166855
Source Step = 8.75041%
Source Step = 9.25603%
Source Step = 9.76165%
Source Step = 10.2673%
Source Step = 10.7729%
vernier = 0.0250282
Source Step = 11.3038%
Source Step = 12.0622%
Source Step = 12.8207%
Source Step = 13.5791%
Source Step = 14.3375%
Source Step = 15.0959%
vernier = 0.0375423
Source Step = 16.2336%
Source Step = 17.3712%
Source Step = 18.5089%
Source Step = 19.6465%
Source Step = 20.7842%
vernier = 0.0563135
Source Step = 22.4338%
Source Step = 24.1402%
Source Step = 25.8467%
Source Step = 27.5532%
Source Step = 29.2596%
vernier = 0.0844703
Source Step = 31.6487%
Source Step = 34.2084%
Source Step = 36.7681%
Source Step = 39.3278%
Source Step = 41.8875%
vernier = 0.126705
Source Step = 45.3431%
Source Step = 49.1827%
Source Step = 53.0222%
Source Step = 56.8618%
Source Step = 60.7014%
vernier = 0.190058
Source Step = 65.6928%
Source Step = 71.4521%
Source Step = 77.2115%
Source Step = 82.9708%
Source Step = 88.7301%
Source Step = 91.0699%
vernier = 0.00296966
Source Step = 91.1239%
Source Step = 91.2138%
Source Step = 91.3038%
Source Step = 91.3938%
Source Step = 91.4838%
Source Step = 91.5738%
Source Step = 91.6638%
Source Step = 91.7538%
Source Step = 91.8438%
Source Step = 91.9338%
Source Step = 92.0238%
Source Step = 92.1137%
Source Step = 92.2037%
Source Step = 92.2937%
Source Step = 92.3837%
Source Step = 92.4737%
Source Step = 92.5637%
Source Step = 92.6537%
Source Step = 92.7437%
Source Step = 92.8337%
Source Step = 92.9237%
Source Step = 93.0136%
Source Step = 93.1036%
Source Step = 93.1936%
Source Step = 93.2836%
Source Step = 93.3736%
Source Step = 93.4636%
Source Step = 93.5536%
Source Step = 93.6436%
Source Step = 93.7336%
Source Step = 93.8235%
Source Step = 93.9135%
Source Step = 94.0035%
Source Step = 94.0935%
Source Step = 94.1835%
Source Step = 94.2735%
Source Step = 94.3635%
Source Step = 94.4535%
Source Step = 94.5435%
Source Step = 94.6335%
Source Step = 94.7234%
Source Step = 94.8134%
Source Step = 94.9034%
Source Step = 94.9934%
Source Step = 95.0834%
Source Step = 95.1734%
Source Step = 95.2634%
Source Step = 95.3534%
Source Step = 95.4434%
Starting source stepping with srcstepmethod=1
Source Step = 3.0303%
Source Step = 12.7367%
Source stepping failed

Pseudo Transient succeeded in finding the operating point at 63.9876 s.
Total elapsed time: 93.552 seconds.

